What Roman author, born at Rudiae, wrote an epic history entitled Annālēs and is called the "Father of Latin Literature"? ANSWER:(Q.) ENNIUS BONUS: How many books are contained in Ennius' Annālēs? ANSWER:15 / 18 BONUS: What later author said that Ennius possessed three hearts because he could speak Greek, Latin, and Oscan? ANSWER:(A.) GELLIUS  
For the verb orior, give the perfect infinitive. ANSWER:ORTUS / UM ESSE BONUS: Translate ortum esse. ANSWER:TO HAVE RISEN BONUS: Change ortum esse to the future and translate. ANSWER:ORTURUM ESSE - TO BE ABOUT TO RISE  
Who, with the aid of Athena in the guise of Mentor, set out from Ithaca to seek tidings of his father, Odysseus? ANSWER:TELEMACHUS BONUS: To what kingdom did Telemachus go first in search of his father? ANSWER:PYLOS BONUS: What son of Nestor accompanied Telemachus to Sparta? ANSWER:PEISISTRATUS  
Who awoke to the cackling of geese and saved the capitol from an advancing Gallic army? ANSWER:M. MANLIUS (CAPITOLINUS)  BONUS: To what goddess were these geese sacred? ANSWER:JUNO BONUS: After the Gauls sacked the city, who returned from his exile at Ardea and drove them from Rome? ANSWER:(M. FURIUS) CAMILLUS  
Differentiate in meaning between lavō and levō. ANSWER:LAVŌ - WASH LEVŌ - LIFT / LIGHTEN  BONUS: ...between creō and crepō. ANSWER:CREŌ - CREATE / MAKE CREPŌ - RATTLE BONUS: ...between saevus and salvus. ANSWER:SAEVUS - SAVAGE / FIERCE SALVUS - SAFE / SOUND  
What Roman general, the designated successor of the emperor Tiberius, was poisoned in Syria in 19 A.D.? ANSWER:GERMANICUS BONUS: What governor of Syria was accused of poisoning Germanicus? ANSWER:(CN. CALPURNIUS) PISO 
Identify the use of the subjunctive in the following sentence: "Cīvis rogāvit cūr consul gāvīsus esset." ANSWER:INDIRECT QUESTION  BONUS: Translate that sentence. ANSWER:THE CITIZEN ASKED WHY THE CONSUL HAD REJOICED BONUS: Identify the use of the subjunctive in this sentence and translate: "Quid faciam?" ANSWER:DELIBERATIVE - WHAT AM I TO DO / WHAT SHOULD I DO?  
What author dedicated his voluminous Naturālis Historia to the emperor Titus in 77 A.D.? ANSWER:PLINY THE ELDER  BONUS: How many books are contained in Pliny's Naturālis Historia? ANSWER:37 BONUS: Where was Pliny stationed as a Roman fleet commander on the eve of Vesuvius' eruption? ANSWER:MISENUM  
The English words "default," "failure," and "infallible" are derived from what Latin verb? ANSWER:FALLŌ BONUS: Give the principal parts and meaning of fallō? ANSWER: FALLŌ, FALLERE, FEFELLĪ, FALSUM - TO DECEIVE  BONUS: What derivative of fallō means "a mistaken belief based on unsound arguments"? ANSWER:FALLACY  
What hero was known by the name Hipponoüs until he received the epithet "Bellerus-Killer" after he murdered his brother? ANSWER:BELLEROPHON BONUS: What king of Tiryns purified Bellerophon of this murder? ANSWER:PROËTUS BONUS: Who were the mortal parents of Bellerophon? ANSWER:GLAUCUS and EURYNOME / EURYMEDE  
What Roman general, by employing a double line of earthworks, was able to hold off a Gallic army and starve Alesia into submission? ANSWER:JULIUS CAESAR BONUS: In what year did the siege of Alesia take place? ANSWER:52 B.C. BONUS: What chieftan of the Arverni surrendered to Caesar after Alesia? ANSWER:VERCINGETORIX  
What Roman poet addresses Sirmio as the ocelle īnsulārum in poem 31 of his Carmina? ANSWER:CATULLUS  BONUS: Give Catullus' full name. ANSWER:GAIUS VALERIUS CATULLUS BONUS: Which poem in Catullus' Carmina is a funerary lament for his brother? ANSWER:101  
Translate the following sentence into English: "Multī dē meīs amīcīs domum ītūrī sunt. ANSWER:MANY OF MY FRIENDS ARE ABOUT TO / WILL GO HOME  BONUS: ... "Nemo nostrum putat hanc quaestiōnem esse difficilem. ANSWER: NONE / NO ONE OF US THINKS (THAT) THIS QUESTION IS HARD / DIFFICULT BONUS: ... "Augustō imperatore pax constituta est." ANSWER: WHEN AUGUSTUS WAS EMPEROR, PEACE WAS ESTABLISHED  
Who, the eldest son of Heracles and Deianeira, led his father's descendants in an abortive attempt to reclaim Mycenae? ANSWER:HYLLUS BONUS: What collective name is given to these descendants of Heracles? ANSWER:HERACLIDS BONUS: What king of Tegea killed Hyllus in single combat? ANSWER:ECHEMUS  
Domine Dirige Nōs is the Latin motto of what European city? ANSWER:LONDON BONUS: Esto Perpetua is the Latin motto of what European city? ANSWER:VENICE BONUS: Fluctuat nec mergitur is the Latin motto of what European city? ANSWER:PARIS 
Make the phrase celsus pariēs genitive singular. ANSWER:CELSĪ PARIĒTIS BONUS: Change celsī pariētis to the plural. ANSWER:CELSŌRUM PARIĒTUM BONUS: Change celsōrum pariētum to the dative singular. ANSWER:CELSŌ PARIĒTĪ  
A lost tragedy entitled Medea, the Remedia Amoris, the Fastī, and the Metamorphosēs were all works of what Augustan age poet? ANSWER:OVID BONUS: Ovid was born in the same year as what other famous author died? ANSWER:CICERO BONUS: Ovid died in the same year as what famous Roman historian? ANSWER:LIVY  
Who flung an infallible spear and accidentily killed his wife Procris? ANSWER:CEPHALUS BONUS: Procris had received this spear and the hound Laelaps from what king? ANSWER:MINOS BONUS: Procris spied on her husband due to mistrust. With what goddess was Cephalus unfaithful? ANSWER:EOS  
What future emperor was granted the tribūnīcia potestās in 6 B.C.? ANSWER:TIBERIUS BONUS: In the same year Tiberius insisted on leaving Rome for what island? ANSWER:RHODES BONUS: With Tiberius away from Rome, what two grandsons did Augustus begin to groom for the succession? ANSWER:C. and L. CAESAR  
Translate the following sentence into English: "Cicero erat perītus loquendī." ANSWER:CICERO WAS SKILLED IN SPEAKING  BONUS: ... "Hominēs febrī Athēnīs moriuntur." ANSWER: THE PEOPLE ARE DYING OF FEVER IN ATHENS BONUS: ... "Omnēs ex urbe discessērunt ut morbum ēvītārent." ANSWER: EVERYONE LEFT THE CITY TO AVOID SICKNESS  
From what Latin noun, with what meaning, do we derive "fealty"? ANSWER:FĪDĒS - FAITH / TRUST BONUS: ...do we derive "curfew"? ANSWER:FOCUS - HEARTH BONUS: ...do we derive "deliberate"? ANSWER:LĪBRA - SCALE(S)  
What Silver Age author mocked the death of Claudius in his Apocolocyntosis? ANSWER:SENECA THE YOUNGER  BONUS: What work of Seneca is a seven book Stoic examination of natural phenomena? ANSWER:NATURĀLĒS QUAESTIŌNĒS  BONUS: What work of Seneca is a collection of 124 letters on moral philosophy? ANSWER: EPISTULAE MORĀLĒS  
What Titaness lay with Zeus for nine nights in Pieria and gave birth to the Muses? ANSWER:MNEMOSYNE BONUS: What bard challenged the Muses to a signing contest at Dorium? ANSWER:THAMYRIS BONUS: Whose daughters were turned into magpies after they challenged the Muses to a signing contest and lost? ANSWER:PIERUS' 
Identify the use of the dative case illustrated here: "Diligenter nobīs lābōrāndum est." ANSWER:AGENT BONUS: ... "latrō omnēs dīvitiās quaestōrī abstulit." ANSWER:SEPARATION BONUS: ... "vae victīs." ANSWER:REFERENCE  
The attack on what city by Hiero of Syracuse led to the events which caused the First Punic War? ANSWER:MESSANA  BONUS: In what year did Hiero advance on Messana? ANSWER:264 B.C. BONUS: What Campanian mercenaries had held Messana since 288 B.C.? ANSWER:MAMERTINES  
Quid Anglicē significat "crīnis"? ANSWER:HAIR BONUS: ... "culmen"? ANSWER:TOP / PEAK BONUS: ... "custos"? ANSWER:GUARD  
What king of Teuthrania showed the Greeks how to sail to Troy after they cured his wound? ANSWER:TELEPHUS  BONUS: Which of the Greeks had wounded Telephus? ANSWER:ACHILLES BONUS: How did Achilles cure Telephus' wound? ANSWER: RUBBED RUST FROM HIS SPEAR ONTO TELEPHUS' WOUND  
What Roman author rebutted the charge of contaminātiō in the prologue of his Andria? ANSWER:TERENCE BONUS: What cognōmen of Terence refers to his foreign birth? ANSWER:AFER BONUS: In what African city was Terence born? ANSWER:CARTHAGE  
In the amphitheater, what did the Romans call hunts of wild beasts? ANSWER:VĒNĀTIŌNĒS BONUS: What name was given to the gladiators who participated in vēnātiōnēs? ANSWER:BESTIĀRIĪ BONUS: What was indicated about a gladiator if the letter "P" were added to his name after a vēnātiō? ANSWER:HE DIED (PERIIT)  
What do all of the following verbs have in common grammatically: careō, fungor, abundō, utor? ANSWER:THEY TAKE THE ABLATIVE  BONUS: ...grandinat, rorat, tonat? ANSWER:IMPERSONALS BONUS: ...interest, meminī, oblīviscor? ANSWER:THEY TAKE THE GENITIVE 
What emperor of Rome was killed at Adrianople in 378 A.D.? ANSWER:VALENS BONUS: What brother of Valens ruled in the west until 375 A.D.? ANSWER:VALENTINIAN I BONUS: What two sons of Valentinian I held a joint rule in the west after their father's death in 375 A.D.? ANSWER:GRATIAN and VALENTINIAN II  
Using the verb iubeō and an idiom, say in Latin: "Caesar ordered the soldiers to march." ANSWER:CAESAR IUSSIT / IUBĒBAT MILITĒS ITER FACERE  BONUS: Express that same sentence by using the verb imperō. ANSWER:CAESAR IMPERĀVIT / IMPERĀBAT MILITIBUS UT ITER FACERENT  BONUS: Besides imperō, give another Latin verb that is used with an indirect command AND takes the dative case. ANSWER:PRAECIPIŌ / MANDŌ  
What god was cared for by the Sintians after he fell from Olympus for an entire day? ANSWER:HEPHAESTUS BONUS: On what island did the Sintians live? ANSWER:LEMNOS BONUS: According to Homer, which of the Graces was married to Hephaestus? ANSWER:AGLAEA  
What historian, born at Amiternum, wrote monographs on the Jugurthine War and the Catilinarian Conspiracy? ANSWER:SALLUST BONUS: Give Sallust's full name. ANSWER:C. SALLUSTIUS CRISPUS BONUS: What work of Sallust, although no longer extant, was considered by ancient sources to have been his best? ANSWER:HISTORIAE / HISTORIES  
Which of the following words, if any, is NOT derived from the same Latin words as the others: "exaggerate," "ambiguous," "examine," "exigent"? ANSWER:EXAGGERATE BONUS: From what Latin noun, with what meaning, do we derive "exaggerate"? ANSWER: AGGER - MOUND / MASS / HEAP / RAMPART  BONUS: Give the principal parts of the verb from which the other words in the toss-up are derived. ANSWER:AGŌ, AGERE, ĒGĪ, ACTUM  
According to Book II of Homer's Iliad, who led 100 ships to Troy, the largest contingent of the Greek captains? ANSWER:AGAMEMNON BONUS: Which of the Greek captains led 80 ships along with his herald Sthenelus? ANSWER:DIOMEDES BONUS: Name one of the two Greek captains who led 12 ships to Troy? ANSWER: ODYSSEUS / AJAX THE GREATER  
In which Plautine comedy does the slave Tranio lead people to believe that the house of Theopropides is haunted? ANSWER:MOSTELLARIA BONUS: Which Plautine comedy contains excerpts of the Carthaginian language? ANSWER:POENULUS BONUS: In the prologue of which Plautine comedy does Arcturus tell of the shipwreck of the pimp, Labrax? ANSWER:RUDENS 
Translate this sentence into English: "Rēgīna Dīdō verētur nē Aenēās discēdat. ANSWER:QUEEN DIDO FEARS THAT AENEAS IS LEAVING / WILL LEAVE  BONUS: ..."Nōn dubium est quīn Aenēās ad Ītaliam navigāturus sit  ANSWER: THERE IS NO DOUNT THAT AENEAS IS GOING TO / WILL SAIL TO ITALY BONUS: ..."Aenēā profectō, Dīdō sē ferrō ignīque interfēcit.  WHEN / AFTER / BECAUSE AENEAS HAD DEPARTED,  ANSWER: DIDO KILLED HERSELF WITH A SWORD AND FIRE  
During which war did the Romans suffer disastrous defeats at Lautulae and Caudine Forks? ANSWER:SECOND SAMNITE WAR  BONUS: What Samnite defeated T. Veturrius and Sp. Calvinus at Caudine Forks? ANSWER:(GAVIUS) PONTIUS BONUS: What Roman general avenged his defeat at Lautulae with a victory at Sentinum? ANSWER:(Q. FABIUS) RULLIANUS  
Which Jesuit university has the motto Sapientia et Doctrina? ANSWER:FORDHAM BONUS: Which New York university has the motto In tuō lumine vidēbimus lumen? ANSWER:COLUMBIA BONUS: Which northern college has the motto Scientia Sol Mentis? ANSWER:DELAWARE  
Who defeated the Caledonian tribes of Scotland at Mons Graupius in 84 A.D.? ANSWER:(CN. IULIUS) AGRICOLA  BONUS: What Caledonian chieftan was defeated at Mons Graupius? ANSWER:CALGACUS BONUS: What emperor recalled Agricola but did not reward him with a further command? ANSWER:DOMITIAN  
What is the meaning of the Latin noun exuviae? ANSWER:SPOILS BONUS: ...daps? ANSWER:BANQUET BONUS: Give a plural only synonym of daps. ANSWER:EPULAE  
What king of Aegina assisted Apollo and Poseidon in building the walls of Troy? ANSWER:AEACUS BONUS: Which god was the father of Aeacus? ANSWER:ZEUS BONUS: Aeacus renamed the island Aegina after his mother. Was the this island's original name? ANSWER:OENONE  
With the publication of the Originēs, who became the first to write a prose history in Latin? ANSWER:CATO THE ELDER  BONUS: How many books are contained in Cato's Originēs? ANSWER:SEVEN BONUS: Whom does Cato refuse to call by name in his Originēs, refering to him instead as "dictātor Carthāginiensis"? ANSWER:HANNIBAL  
Give both future participles of ferō. ANSWER:FERENDUS and LATURUS BONUS: ...of eō. ANSWER:EUNDUS and ITURUS BONUS: ...of ulcīscor. ULCĪSCENDUS and ULTURUS ANSWER:ROUND 4 / SEMI-  
What later Roman emperor, in an attempt curb inflation, issued the Edictum dē pretiīs in 302 A.D.? ANSWER:DIOCLETIAN  BONUS: What gold coin did Constantine introduce in 309 A.D. to combat inflation? ANSWER:SOLIDUS BONUS: In order to further aid the finances of the Empire, Constantine proposed a collātiō lustrālis and a collātiō glēbālis. What were they? ANSWER:TAXES  
Give the comparative and superlative forms of diū. ANSWER:DIŪTIUS and DIŪTISSIMĒ  BONUS: ...of arduus  ANSWER:MAGIS ARDUUS and MAXIMĒ ARDUUS  BONUS: ...of senex. ANSWER:SENIOR / MĀIOR NĀTŪ and MAXIMUS NĀTŪ  
Who authored the fabula palliata Gladiōlus along with a translation of Homer's Odyssey? ANSWER:LIVIUS ANDRONICUS  BONUS: From what southern Italian city was Andronicus brought to Rome as a slave? ANSWER:TARENTUM BONUS: In what year did Andronicus produce a Partheneon to celebrate the goddess Juno? ANSWER:207 B.C.  
What queen, appearing in the armor of her father Thoas, welcomed the Argonauts to Lemnos? ANSWER:HYPSIPYLE  BONUS: What herald did Jason send to greet Hypsipyle? ANSWER:AETHALIDES BONUS: What old nurse of Hypsipyle suggested that the Lemnian women invite the Argonauts into their homes as well as their city? ANSWER:POLYXO  
Listen carefully to the following passage, which I shall read twice, and answer IN ENGLISH the question that follows:  In apodyterium trēs comitēs intrāvērunt ut vestimenta mutārent. Tunc unus ē comitibus in tepidārium graditur. Duōrum quī sunt reliquī, alter in frigidāriō sē submergere vult et alter dīcit sē in caldāriō natāre velle. Tribus horīs comitēs ad Forum revenient ut orātorēs audiant. Question: Why did the three friends enter the apodyterium? ANSWER:TO CHANGE CLOTHES BONUS: What does the second of the three friends want to do at the baths? ANSWER: DUNK / SUBMERGE HIMSELF IN THE FRIGIDARIUM  BONUS: What two things will the friends do after they leave the baths? ANSWER: GO TO THE FORUM AND HEAR ORATORS  
What author was accused by his in-laws of having won his wife by the use of magic? ANSWER:APULEIUS BONUS: Who was Apuleius' rich wife? ANSWER:AEMILIA PUDENTILLA BONUS: Which of Apuleius' works is his defence speech from the trial? ANSWER:APOLOGIA / APOLOGY  
Translate only the verb in the dependent clause in this sentence into Latin: "The teacher knew that he had given the tests to the students." ANSWER:DEDISSE / DONĀVISSE BONUS: ... "The teacher is so great that he always gives us rewards." ANSWER:DET / DONET BONUS: ... "Nothing can stop this teacher from writting great questions." ANSWER:SCRĪBAT 
What king of Rome was killed when his palace burned down in a fire? ANSWER:TULLUS HOSTILIUS BONUS: Tullus' palace was struck by lightning after misperforming a ceremony to which incarnation of Jupiter? ANSWER:(JUPITER) ELICIUS BONUS: What Roman commander who fought against the Sabines was the grandfather of Tullus Hostilius? ANSWER:HOSTIUS HOSTILIUS  
What English verb, derivatived from the Latin verb labor, means "to return to a worse state after a period of improvement"? ANSWER:RELAPSE BONUS: What English adjective, derived from the Latin verb moveō, means "refusing to obey the orders  of a person in authority"? ANSWER:MUTINOUS BONUS: What English adjective, derived from the Latin verb nascor, means "naturally inborn"? ANSWER:INNATE  
Who was transformed into a lizard after he mocked the goddess Demeter? ANSWER:ASCALABUS BONUS: Demeter became enraged at Ascalabus after the boy mocked her for drinking a cup of kykeon. Who later offered Demeter kykeon and made her laugh? ANSWER:IAMBE BONUS: What name had Demeter assumed when this episode occurred? ANSWER:DOSO  
Translate the motto of the University of Florida: Cīvium in moribus rēī pūblicae salūs. ANSWER:IN THE CHARACTER OF ITS CITIZENS LIES THE WELFARE OF THE STATE BONUS: Translate the motto of the University of Georgia: Et docēre et rērum exquīrere causās. ANSWER:BOTH TO TEACH AND INQUIRE INTO / ABOUT THE CAUSES OF THINGS BONUS: Translate the motto of the University of Tennessee: Veritātem cognoscētis et veritās tē līberābit. ANSWER:YOU WILL KNOW THE TRUTH AND THE TRUTH WILL SET YOU FREE  
What speech of Cicero, delivered in 81 B.C., was the orator's first extant speech in the law-courts? ANSWER:PRŌ QUINCTIŌ  BONUS: What advocate was Cicero's opponent in this case? ANSWER:(Q.) HORTENSIUS (HORTALUS) BONUS: In what speech of 80 B.C. did Cicero attack Chrysogonus, a powerful freedman of Sulla? ANSWER:PRŌ ROSCIŌ AMERĪNŌ  
At what battle in 222 B.C. did Marcus Claudius Marcellus win the spolia opima? ANSWER:CLASTIDIUM BONUS: What Roman author wrote a fabula praetexta about Clastidium? ANSWER:(CN.) NAEVIUS BONUS: What insubrian chieftan did Marcellus kill at Clastidium? ANSWER:VIRODOMARUS  
Which of the following words is NOT a pure I-stem: "turris," "febris," "iuvenis," "restis"? ANSWER:IUVENIS  BONUS: Give the genitive plural of iuvenis. ANSWER:IUVENUM BONUS: Excluding substantives, give another 3RD declension noun which ends in -um in the genitive plural. ANSWER:CANIS / VATĒS / SEDĒS  
According to Book IX of Ovid's Metamorphoses who was transformed into a lotus tree? ANSWER:DRYOPE BONUS: The nymph Lotis was transformed into a tree while fleeing from what god? ANSWER:PRIAPUS BONUS: Who, her sister, tells the story of Dryope's transformation in the Metamorphoses? ANSWER:IOLE  
Quid Anglicē significat "nefās"? ANSWER: WICKEDNESS / WRONG / IMMORALITY / SOMETHING EQUIVALENTLY BAD BONUS: Quid Anglicē significat "pabulum"? ANSWER:FODDER / ANIMAL FOOD BONUS: Quid Anglicē significat "quoad"? ANSWER:UNTIL / AS LONG AS 
What well-known author's only two extant works are Commentariī, one on his campaigns in Gaul and the other on the Civil War? ANSWER:(JULIUS) CAESAR'S BONUS: How many books comprise Caesar's Commentariī Dē Bellō Gallicō? ANSWER:EIGHT BONUS: What lost work of Caesar is a treatise on Latin grammar? ANSWER:DĒ ANALOGIĀ  
In Book X of Vergil's Aeneid, what gallant son of Evander bravely challenges Turnus to a duel? ANSWER:PALLAS  BONUS: What object does Turnus take from Pallas after killing him? ANSWER:SWORD BELT / BALDRIC 
In which province of the Roman Empire would all of the following cities be found: Verulamium, Deva, Camulodunum, Aquae Sulis, and Londinium? ANSWER:BRITANNIA / BRITAIN BONUS: In which province of the Roman Empire would the city of Olisipo be found? ANSWER:LUSITANIA BONUS: In which province of the Roman Empire would the city of Cordoba be found? ANSWER:BAETICA  
Translate this sentence into Latin using a supine: "We came to watch these games." ANSWER:VĒNIMUS / VENIĒBĀMUS SPECTĀTUM HŌS / EŌS LUDŌS  BONUS: Translate that same sentence using a gerundive and the accusative case. ANSWER: VĒNIMUS AD SPECTANDŌS LUDŌS  BONUS: Translate that same sentence using the genitive case. ANSWER: VĒNIMUS SPECTANDŌRUM LUDŌRUM GRATIĀ / CAUSĀ 
What Roman author was accused of Patavīnitas because he placed elements in his history which were favorable to his home town of Patavium? ANSWER:LIVY BONUS: What fellow historian, critic, and general leveled this charge against Livy? ANSWER:(ASINIUS) POLLIO BONUS: What Roman author of the Silver Age characterized Livy's writing as exhibiting lactea ubertās? ANSWER:QUINTILIAN  
For the verb sum, give the 2ND person, singular, future imperative. ANSWER:ESTŌ BONUS: Change estō to the plural. ANSWER:ESTŌTE BONUS: Change estōte to the 3RD person. ANSWER:SUNTŌ  
What dragon-woman guarded the sinews of Zeus after Typhon had stolen them? ANSWER:DELPHYNE BONUS: Who stole the sinews from Delphyne and returned them to Zeus? ANSWER:HERMES and AEGIPAN BONUS: What Olympian god earned one of his epithets in some accounts by killing Delphyne? ANSWER:APOLLO  
Place the following battles of the First Punic War into chronological order: Lilybaeum, Cape Ecnomus, Mylae, Bagradas Valley. ANSWER:MYLAE, CAPE ECNOMUS, BAGRADAS VALLEY, LILYBAEUM BONUS: In what year did the failed siege of Lilybaeum take place? ANSWER:249 B.C. BONUS: The Romans suffered two other disastrous defeats in 249 B.C. Name both. ANSWER: DREPANA / DREPANUM and CAPE PISARO  
Identify the speaker of the following lines of Vergil's Aeneid which I will read as prose: "Infandum, rēgīna, iubēs renovāre dolorem, Trōiānus ut opēs et lamentabile regnum eruerint Danaī..." ANSWER:AENEAS  BONUS: ... "Ō terque quāterque beātī, quīs ante ōra patrum Troiae sub moenibus altīs contigit oppetere!" ANSWER:AENEAS BONUS: ... "Tū nunc Karthaginis altae fundamenta locās pulchramque uxorius urbem extruis?" ANSWER:MERCURY  
Identify the type of conditional illustrated here: Sī omnēs gladiātorēs moriantur, turba infelīx sit. ANSWER:FUTURE MORE VIVID  BONUS: Translate that sentence. ANSWER: IF ALL THE GLADIATORS SHOULD DIE, THE CROWD WOULD BE UNHAPPY  BONUS: Change the entire sentence so that it is a past contrary to fact conditional. ANSWER: SĪ OMNĒS GLADIĀTORĒS MORTUĪ ESSENT, TURNA INFELĪX FUISSET  
What emperor of Rome was defeated and killed at Interamna by Aemilius Aemilianus in 253 A.D.? ANSWER:TREBONIANUS GALLUS  BONUS: How did Aemilius Aemilianus die after a short reign of three months? ANSWER: HIS SOLDIERS KILLED (HANGED) HIM  BONUS: Who, the last member of the old republican nobility to serve as empreror, succeeded Aemilius Aemilianus? ANSWER:VALERIAN 
What poem of Horace was commissioned by Augustus to celebrate the Ludī Saeculārēs in 17 B.C.? ANSWER:CARMEN SAECULARE  BONUS: To what two dieties is the Carmen Saeculare dedicated? ANSWER:APOLLO and DIANA BONUS: In what meter is the Carmen Saeculare written? ANSWER:SAPPHIC  
From what Latin noun, with what meaning, do we derive "clavicle"? ANSWER:CLAVIS - KEY BONUS: ...do we derive "search"? ANSWER:CIRCUS - CIRCUS BONUS: ...do we derive "forge"? ANSWER:FABER - SMITH / CRAFTSMAN / ENGINEER  
What maiden mockingly spurned the advances of her suitor Iphis, leading him to hang himself on her doorstep? ANSWER:ANAXERETE BONUS: Where did Iphis and Anaxerete live? ANSWER:CYPRUS BONUS: How was Anaxerete punished according to Ovid? ANSWER:TURNED TO STONE  
VISUAL TOSS UP. Pass out visual question to all players. The following toss up question is a visual. We are currently providing each  player with a copy of the visual. Please do not turn over the visual until  instructed to do so. Also, please be mindful that this is a toss up question,  so do not consult or communicate with your teammates. Please turn over the  visual; you will have 10 seconds to examine it (wait 10 seconds). Here is your question:  Question: Identify the use of the subjunctive illustrated by letter "C". ANSWER: SUBSTANTIVE CLAUSE OF RESULT  BONUS: Which use of the subjunctive is illustrated by letter "B"? ANSWER: RELATIVE CLAUSE OF CHARACTERISTIC  BONUS: Which use of the subjunctive is illustrated by letter "D"? ANSWER: SUBORDINATE CLAUSE IN INDIRECT DISCOURSE / STATEMENT  
To what city did Honorius move the capital of the Roman Empire in 401 A.D.? ANSWER:RAVENNA BONUS: Honorius moved the capital to avoid the invasion of what barbarian leader? ANSWER:ALARIC BONUS: At what two battles of 402 and 403 did Honorius' general Stilicho defeat Alaric? ANSWER:VERONA and POLLENTIA  
Thersander, Promachus, Sthenelus, Diomedes, Polydorus, and Alcmeon were all members of which mythological group? ANSWER:EPIGONI BONUS: Who was the only one of the Epigoni to die during the attack on Thebes? ANSWER:AEGIALEUS BONUS: What son of Eteocles led the defense of the city against the Epigoni? ANSWER:LAODAMAS  
What minor Roman author began his historical narrative with the march of Alexander the Great through Phrygia on his way to cut the Gordian knot? ANSWER:(Q.) CURTIUS RUFUS BONUS: How many books are contained in Curtius Rufus' Historiae Alexandrī Magnī? ANSWER:TEN BONUS: Which of these ten books are no longer extant? ANSWER:ONE and TWO 
Translate the following sentence into English: Vergilius locutus est verba mirabilia audītū. ANSWER:VERGIL SPOKE WORDS WONDERFUL TO HEAR  BONUS: Vergilius dīxit Horatium esse animae dimidium suae. ANSWER: VERGIL SAID THAT HORACE WAS HALF OF HIS SOUL  BONUS: Vergilius voluit ut magnum opus igne dēlērētur. ANSWER: VERGIL WANTED / WISHED THAT (HIS) GREAT(EST) WORK BE DESTROYED IN A FIRE  
Listen carefully to the following passage which I shall read twice, and answer IN LATIN the question that follows:  Multīs abhinc annīs, iuvenis nomine Aulus, canem, cuius nomen erat Rēx, maximē amāvit. Cotidie, Aulus Rēxque lusērunt in agrīs proximīs domō suō. Paucīs annīs, autem, Rēx senescuit et nequīvit ludere cum carissimō amīcō. Postquam Rēx mortuus erat, Aulus lūxit et pollicitus est sē numquam obliturum esse canis. Question: Quomodō Aulus canem Regem amāvit? ANSWER:MAXIMĒ BONUS: Quotiēns Aulus et Rēx in agrīs lusērunt? ANSWER:COTIDIĒ BONUS: Respondē Anglicē: Postquam Rēx mortuus erat, Quid Aulus ēgit? ANSWER: HE GRIEVED AND PROMISSED THAT HE WOULD NEVER FORGET HIS DOG  
What epithet of the goddess Athena refers to her birth near a river in Arcadia? ANSWER:TRITOGENEIA BONUS: What epithet of Athena means "The Worker"? ANSWER:ERGANE BONUS: What epithet of Athena means "Champion"? ANSWER:PROMACHUS  
Where in the Roman world did Eunus and Cleon raise a revolt in 135 B.C.? ANSWER:SICILY BONUS: What two men led a second slave uprising on Sicily at the end of the 2ND century B.C.? ANSWER:ATHENION and SALVIUS  BONUS: What lieutenant of Marius defeated Athenion and Salvius? ANSWER:(M'.) AQUILIUS  
Differentiate in meaning between haereō and hauriō. ANSWER: HAEREŌ - CLING / STICK HAURIŌ - DRAIN / DRINK  BONUS: ...mulgeō and mulceō. ANSWER:MULGEŌ - MILK MULCEŌ - SOOTHE BONUS: ...sternuō and stertō. ANSWER:STERNUŌ - SNEEZE STERTŌ - SNORE  
What Silver Age author wrote an epic which is considered by many to be an anti-Aeneid? ANSWER:LUCAN BONUS: Who called his Satires "child's play" when he compared them to the verses of his friend Lucan? ANSWER:PERSIUS BONUS: Persius and Lucan studied under what stoic philosopher? ANSWER:CORNUTUS 
